leve.pwf
TITU
ONS PDPM Abril 2022 - LEVE                                                      
DAGR
(AG (         D E S C R I C A O        )
  6 SUBMERCADOS DO SIN      
(ID O (       Nome de Identificacao      )  
  1   SUDESTE/CENTRO-OESTE                 
  3   NORDESTE                             
FAGR
99999
DBAR
(Num)OETGb(   nome   )Gl( V)( A)( Pg)( Qg)( Qn)( Qm)(Bc  )( Pl)( Ql)( Sh)Are(Vf)M(1)(2)(3)(4)(5)(6)(7)(8)(9)(10
   90 L  EVIANA--ES345 51000-185                                         2341010                  1                                
  118 L  UBANDT4-GO000 51000-176                                         1481000                  1                               
  147 L  ECAMPOS-RJ345 51000-164                            27.  5.5     2221000                  1                               
  149 L  EVITORI-ES345 51000-185                                         2341000                  1                                
  216 L  EP.COL--MG345 51000-137                                         1891000                  1                
  217 L  EITUMBI-MG345 51000-160                                         1891000                  1                
  218 L  EBANDEI-GO345 51000-183                                         1481000                  1                
  219 L  EB.SUL--DF345 51000-215                                         1581000                  1                
  220 L  ECORUMB-GO345 51000-173                                         1481000                  1                               
  226 L  FBANDEI-GO230 51000-177                                         1491000                  1                               
  228 L  FB.SUL--DF230 51000-215                                         1591000                  1                                
  233 L  CSAMAMB-DF500 31000-220                                         1571000                  1                
  234 L  ESAMAMB-DF345 51028-216                                         1581000                  1                                
  304 L1 VT.MAR-UHE001 5 993-197     -95.9 -15.  15.                     1891000                  1                                
  308 L  EBARBAC-MG345 51000-161                                         1891000                  1                                
  320 L  CEMBORC-MG500 31000-171                                         1881000                  1                                
  326 L  EJAGUAR-MG345 51000-139                                         1891000                  1                                
  367 L  EPIMENT-MG345 51000-147                                         1891000                  1                                
  380 L  ETMARIA-MG345 51000-198                                         1891000                  1                
  381 L  YTMARIA-MG289 51000-199                                         1891000                  1                
  382 L  GTMARIA-MG138 51000-204        0.                  8.7 -4.8     1931000                  1                                
  390 L  CSGOTAR-MG500 31000-169                                         1881000                  1                
  391 L  ESGOTA2-MG345 51000-174                                         1891000                  1                                
  396 L  EVGRAND-MG345 51000-137                                         1891000                  1                               
  399 L1 GVPALM-PCH138 5 988-217     4964.   0.   0.       14.1  -.1     1931000                  1                
  760 L  FANHANG-GO230 51022-177                                         1491000                  1                
  766 L  FXAVANT-GO230 51000-174                                         1491000                  1                
  768 L  GXAVANT-GO138 5 998-175                                         1511000                  1                
 1505 L  USGOTA1-MG000 61000-174                                         188 996                  1                
 1563 L  GJFORA7-MG138 51000-159                            2.8  4.3     1921000                  1                
 2590 L  EVIAN-T-ES345 51000-185                                         2341000                  1                
 2979 L1 VXAVAN-UTE037 5 974-175     -28.8   0.   0.                     1511000                  1                
 2990 L  FPALMEI-GO230 51000-170                                         1491000                  1                
 3008 L  CPARAC4-MG500 31000-209                                         1881000                  1                
 3017 L1 VGOIAN-UTE088 51023-177     7730.   0.   0.                     1491000                  1                
 3023 L  FGOIAN--GO230 51000-177                                         1491000                  1                
 3032 L  ERNSUL--ES345 51020-179                                         2341000                  1                
 3310 L  GUBA-2--MG138 51000-163                            1.4  2.7     1981000                  1                
 3313 L  GVRBRA2-MG138 51000-165                             .1   .1     1981000                  1                
 3317 L  GTOCANT-MG138 51000-164                            3.2  2.8     1981000                  1                
 3329 L  GVOTORA-MG138 51000-167                            1.9  1.8     1981000                  1                
 3330 L  GU.GUA-PCH138 51000-164                                         1981000                  1                
 3332 L  GU.ITUE-MG138 51000-164                                         1981000                  1                
 3338 L  GPFIAL--MG138 51000-171                             .7   .6     1981000                  1                
 3344 L  EP.FIAL-MG345 51000-178                                         1891000                  1                
 3345 L  GP.FIAL-MG138 51005-177                                         1981000                  1                
 3714 L  FCARAJA-GO230 51000-174                                         1491000                  1                
 3723 L  FPIRINE-GO230 51000-182                                         149 997                  1                
 3725 L  FUTPALM-GO230 51000-170                                         1491000                  1                
 3740 L1 VPALMEIUTE099 51023-170     -71.7   0.   0.                     1491000                  1                
 3966 L  EMACAE--RJ345 51000-156                                         2221000                  1                
 3977 L1 VTMACAGUTE000 51021-156     -355.   0.   0.                     2221000                  1                
 4037 L  GUNAI2--MG138 51000-211        0.                 17.1  3.7     1931000                  1                
 4038 L  GUNAI3-BIO138 51000-212        0.                 37.5  7.1     1931000                  1                
 4039 L1 VQUEIMAUHE001 5 985-209     -27.8-15.5 17.4                     1931000                  1                
 4041 L  GQUEIMA-MG138 51000-212                            9.8  2.2     1931000                  1                
 4049 L  CPIRAP2-MG500 31000-224                                         1881000                  1                
 4066 L  GPARAC4-MG138 5 991-208                                         1931000                  1                
 4068 L1 VR.BAIXUHE000 5 965-207     -102.   0.   0.                     1931000                  1                
 4069 L  GR.BAIX-MG138 51000-207                                         1931000                  1                
 4073 L  GCURVE2PCH138 51000-207        0.                 20.1  2.7     1931000                  1                
 4074 L  GCORI1-PCH138 51000-206        0.                  5.9  2.5     1931000                  1                
 4095 L  GSDUMO2-MG138 5 975-160                                         1921000                  1                
 4097 L  USDUMON-MG000 61000-161                                         1891000                  1                
 4098 L  ESDUMO2-MG345 51000-159                                         1891000                  1                
 4100 L1 VJFORA1UTE000 5 970-164     -36.6   0.   0.                     1981051                  1                
 4101 L  GJFORA--MG138 51000-164                                         1981050                  1                
 4180 L1 VJFORA-UTE000 5 972-159     -104.   0.   0.                     1921000                  1                
 4182 L  GJFCFCL-MG138 51000-159                                         1921000                  1                
 4350 L  CJANAU3-MG500 31000-228                                         1881000                  1                
 4571 L  FTRINDA-GO230 51018-165                                         1491000                  1                
 5001 L  CP.AFON-BA500 31000-256                                          151032                  3                
 5003 L  FPAFBP1-BA230 51010-258                          400.0           16 999                  3                
 5004 L  FPAFBP2-BA230 51001-258                          100.0           161005                  3                
 5005 L  VPAF1G1UHE000 51000-258                                          161000                  3                
 5006 L1 VPAFO1GUHE000 51022-258     40.83   0.   0.                      161025                  3                
 5009 L1 VPAF2G1UHE000 51031-258     72.68   0.   0.                      16 950                  3                
 5010 L1 VPAF2G2UHE000 51028-258     67.87   0.   0.                      161018                  3                
 5011 L1 VPAF2G3UHE000 51031-258     44.39   0.   0.                      161019                  3                
 5012 L1 VPAF2G4UHE000 51031-258     78.03   0.   0.                      16 978                  3                
 5013 L1 VPAF2G5UHE000 51031-258     56.01   0.   0.                      16 978                  3                
 5014 L1 VPAF2G6UHE000 51031-258     56.94   0.   0.                      16 978                  3                
 5015 L1 VPAF3G1UHE000 5 984-258     145.4   0.   0.                      16 950                  3                
 5016 L1 VPAF3G2UHE000 51001-258     136.6   0.   0.                      16 978                  3                
 5022 L1 VPAFO-4UHE003 51013-252     578.3-690. 615.                      15 978                  3                
 5028 L  FMXTBP2-BA230 51000-258                                          161003                  3                
 5029 L  FMXTBP1-BA230 51000-258                                          16 998                  3                
 5030 L1 VASALG1UHE000 5 984-258     69.22   0.   0.                      16 942                  3                
 5032 L1 VASALG3UHE000 5 975-258     67.25   0.   0.                      16 942                  3                
 5050 L  CL.GONZ-PE500 31000-257                                          211038                  3                
 5051 L1 VLGONG1UHE001 5 979-253     82.78-120. 125.                      21 988                  3                
 5054 L1 VLGONG4UHE001 5 979-253     82.78-120. 125.                      21 988                  3                
 5060 L  CXINGO--AL500 31000-256                                          211029                  3                
 5061 L2 VXINGO-UHE002 51020-250     469.1-440. 346.                      21 950                  3                
 5091 L  FGARANH-PE230 51029-260                                          221000                  3                
 5100 L  CANGEL2-PE500 31000-259                                          211066                  3                
 5101 L  FANGELI-PE230 51032-260                                          221025                  3                
 5121 L  FTACAIM-PE230 51000-261                                          221021                  3                
 5210 L  FCGDBD--PB230 51000-260                                          261000                  3                
 5220 L1 VCGRAN-UTE000 5 984-260     3.247   0.   0.                      261000                  3                
 6060 L  CGENDO2-BA500 3 997-241                                          111000                  3                
 6061 L  FGENDO2-BA230 5 974-240                                          121000                  3                
 6070 L  COUROLN-BA500 31000-243                                          111000                  3                
 6071 L  FOUROLN-BA230 5 999-241                                          121000                  3                
 6074 L1 LMCSUL1EOL043 51000-231     40.22-25.1 17.5                      121000                  3                
 6171 L  FIGAPO2-BA230 51000-229                                          121000                  3                
 6173 L  IIGAPO2-BA069 51003-227        0.                 26.5  4.1      131000                  3                
 6195 L1 LCAETITEOL045 51000-222     6.146-29.5 29.5                      121000                  3                
 6200 L  GUSDG1--BA138 51000-258                                          16 960                  3                
 6201 L  GUSDG2--BA138 51000-258                                          16 973                  3                
 6202 L  GP.AFON-BA138 51000-258                                          16 962                  3                
 6204 L  FCAETIT-BA230 51000-229                                          121000                  3                
 6205 L  PCAETIT-BA034 51000-225                                          121000                  3                
 6291 L  FM.CHAP-BA230 51000-239                                          121000                  3                
 6294 L1 VSOBRADUHE002 5 952-255     90.27-136. 194.  6300                11 995                  3                
 6300 L  CSOBRAD-BA500 31006-259                                          111020                  3                
 6301 L  FSOBRAD-BA230 51011-257                                          121000                  3                
 6311 L  FJUAZE2-BA230 51000-255                                          121008                  3                
 6313 L  IJUAZE2-BA069 51008-258                                          131029                  3                
 6314 L1 IPET---UTE000 51008-258     205.2   0.   0.                      131000                  3                
 6334 L  FBROTAS-BA230 51000-237                                          121000                  3                
 6336 L  MBROTAS-BA034 51000-231                                          121000                  3                
 6341 L  FIRECE--BA230 51000-238                                          121038                  3                
 6342 L  GIRECE--BA138 51027-238        0.                 49.2-28.8      131029                  3                
 6349 L  CBJLAP2-BA500 3 987-233                                          111027                  3                
 6351 L  FBJLAPA-BA230 51000-234                                          121003                  3                
 6358 L  FBJLAP2-BA230 51008-234                                          121041                  3                
 6370 L1 LBROTASEOL057 51000-229     110.2-31.3 31.3                      121000                  3                
 6500 L  CJUAZEI-BA500 31000-256                                          111000                  3                
 6501 L  FJUAZE3-BA230 51014-255                                          121000                  3                
 6738 L  FMCHSUL-BA230 51000-238                                          121000                  3                
 6739 L  LMCS--1-BA034 51000-234                                          121000                  3                
 8910 L1 VVIANA1UTE000 51015-185     -122.   0.   0.                     2341000                  1                
 8911 L1 VVIANA2UTE000 51015-185     -123.   0.   0.                     2341000                  1                
99999
DLIN
(De )d O d(Pa )NcEP ( R% )( X% )(Mvar)(Tap)(Tmn)(Tmx)(Phs)(Bc  )(Cn)(Ce)Ns(Cq)(1)(2)(3)(4)(5)(6)(7)(8)(9)(10
   90      2590 1            .01                                370.370.  370.                                
   90      3032 1     .225 2.46841.546                          747.747.  747.                                
  147      3032 1     .345  3.7963.746                          747.747.  747.                                                                                             
  147      3966 3     .258 2.726  50.9                          11321132  1132                                
  149        90 1     .073  .807  13.9                          747.747.  747.                                
  216       396 1     .128  1.42  23.8                          853.1075  699.                                
  217       216 1     .562  6.26 106.7                          747.747.  717.                                
  218       118 4         3.8355         1.                     225.225.  225.                                
  218       234 1     .462  4.33  82.8                          853.956.  639.                                                              
  220       217 1 T   .226  2.39  43.3                          853.1075  853.                                
  220       219 1 T   .701  7.56 140.2                          853.1075  853.                                
  226       118 4          -.377      1.025                     225.225.  225.                                
  226       760 1            .02                                438.438.  438.                                                                
  226      3023 1             .1                                251.251.  251.                                                            
  228       219 5         3.5867         1.                     225.270.  225.                                                               
  228      3723 1     2.18 10.84  18.2                          221.278.  221.                                
  233       320 1      .27  3.87344.03                          19052598  1905                                
  234       233 1          1.114      .9708  .95  1.1        23410501155151050                                                             
  308       367 1      .65  7.32118.01                          699.699.  699.                                
  320       390 1      .23  3.41 274.8                          24422598  2598                                
  320      3008 1     .125 1.996 290.9                          25982598  2598                                
  326       367 1     .507 5.68593.696                          624.699.  699.                                                               
  326       396 1      .24  2.74 45.47                          866.1117  866.                                
  381       304 1           16.2         1.                     400.400.  400.                                
  381       380 2           1.17       .999                     450.630.  450.                                
  382       381 1            7.7      1.012                     150.210.  150.                                
  382       399 1     8.54 23.51 5.497                          125.141.  125.                                
  382      4074 2   5.068121.5835.8142                          182.182.  182.                                
  390      1505 1            2.4      1.075                     400.523.  400.                                
  391       380 1      .48  5.18 87.74                          11231123  1123                                
  391      1505 1            -.2         1.                     400.523.  400.                                
  760      3714 1    .34061.55952.8212                          219.310.  219.                                
  766       226 1 T   .769   3.3   6.3                          299.344.  299.                                
  766       768 1             4.      1.022 .8131.065       -768150.184.  195.                                
  768      2979 1            50.      1.025                      50. 50.   50.                                
 2590      8910 1         11.228         1.                     112.112.  112.                                
 2590      8911 1         11.183         1.                     112.112.  112.                                
 3008      4049 1     .231 3.356  296.                          25332533  2533                                
 3023      3017 1           .067         1.                     180.180.  180.                                
 3310      3313 1     1.79  4.68 1.119                           57. 57.   57.                                
 3310      3317 1      .91  2.39  .572                           95. 95.   95.                                
 3313      3329 1     4.43 11.59 2.773                           47. 47.   47.                                
 3317      3332 1     2.49  6.52  1.56                           95. 95.   95.                                
 3329      3338 1     6.63 17.36 4.152                          110.110.  110.                                
 3330      3332 1     3.64  9.52 2.275                          114.114.  114.                                
 3344       149 1 T   .615 6.867 116.7                          853.1075  853.                                
 3345      3338 1            .98         1.             6.      150.210.  150.                                
 3345      3344 1            6.7      .9897   .9  1.1       3345150.210.21150.                                
 3714      2990 1     1.43 6.55111.851                          219.255.  219.                                
 3723       766 2    .6228 4.768 9.073                          298.376.  298.                                
 3725      2990 1      .01  .045  .066                          219.219.  219.                                
 3725      3740 1           6.25         1.                     210.210.  210.                                
 3966      3977 1         2.5974         1.                     17931793  1793                                
 4037      4038 1     3.67   9.5  2.33                          125.160.  125.                                
 4038      4041 1     5.59 14.49  3.56                          125.160.  125.                                
 4041      4039 1         24.324      1.025                     117.117.  117.                                
 4066      3008 1           4.68      .9187   .9  1.1       4066300.420.17300.                                
 4066      4037 1      7.1  18.3   4.5                          125.160.  125.                                
 4069      4068 1          15.09         1.                     120.132.  132.                                
 4073      4069 1     5.29 13.72  3.37                           95. 95.   95.                                
 4074      4073 1     4.26 11.22  2.66                           96. 96.   96.                                
 4095      1563 1     2.87  6.77 1.664                          150.160.  160.                                
 4095      4097 1           -.44         1.                     375.375.  375.                                
 4098       308 1     .144  1.49 23.64                          11001100  1100                                
 4098      4097 1            4.2         1.   .9  1.1      -4095375.375.33375.                                
 4101      3330 1     2.25   6.5 1.581                          114.114.  114.                                
 4101      4100 1            24.      1.025                      63. 63.   63.                                
 4101      4180 1           24.      1.025                      63. 63.   63.                                
 4182      1563 1    .44921.3063                                 95. 95.   95.                                
 4182      4100 1         11.22      1.025                      50. 50.   50.                                
 4182      4180 1          11.22      1.025                      50. 50.   50.                                
 4350      4049 1     .127 1.788516.76                          25553464  3464                                
 4571       766 1      .24 2.378  9.55                          637.809.  637.                                
 4571      3714 1    .1889 1.886 7.356                          637.809.  637.                                
 5001      5022 1            .89      1.025                     13501620  900.                                
 5001      5050 2    .0394 .476750.635                          21872754  2187                                
 5001      5060 1      .05   .68  67.4                          21652165  2937                                
 5001      5100 1 T    .22  2.79284.68                          12991299  1299                                
 5003      5001 1          1.414      .9476 .7741.169       5003600.720.  600.                                
 5003      5011 1          19.91        .98                      75. 90.   90.                                
 5003      5013 1          15.78        .98                      90.108.  108.                                
 5003      5014 1          15.52        .98                      90.108.  108.                                
 5003      5015 1           5.55      1.027                     240.288.  288.                                
 5003      5029 1      .11   .58 1.011                          99999999  9999                                
 5003      5091 2     3.77 19.81 36.54                          174.174.  174.                                
 5003      6200 1           6.24      1.025                     99999999  9999                                
 5003      6201 1           5.33      1.025                     99999999  9999                                
 5003      6202 1           4.35      1.025                     99999999  9999                                
 5004      5001 1          1.414      .9168 .7741.169       5004600.720.  600.                                
 5004      5005 1         21.185        .98                     99999999  9999                                
 5004      5006 1         21.124        .98                      67. 80.   80.                                
 5004      5016 1          6.017         1.                     240.288.  288.                                
 5004      5028 1      .11   .58 1.011                          99999999  9999                                
 5004      5091 3      1.8 15.41 46.95                          348.348.  348.                                
 5028      5032 1          11.77      1.027                     120.144.  144.                                
 5029      5030 1          11.77      1.027                     120.144.  144.                                
 5050      5051 1           4.11      1.025                     275.330.  275.                                
 5050      5054 1           4.11      1.025                     275.330.  275.                                
 5060      5061 1           1.25      1.025                     16651998  1110                                
 5060      5100 1       .2  2.52261.96                          10002278  1000                                
 5091      5101 1    .1177  .821  2.96                          498.633.  498.                                
 5101      5100 1         1.7772      1.019 .8671.038       5101600.750.17600.                                
 5101      5121 1     1.14  5.97 10.64                          251.251.  251.                                
 5121      5210 1     2.26 11.85  21.3                          251.261.  251.                                
 5210      5220 1           6.67         1.                     180.180.  180.                                
 6060      6061 1          1.491      1.036  .86 1.18      -6061900.1080  900.                                
 6060      6070 1     .104 1.646 234.2                          29623641  2962                                
 6061      6334 1    2.251  11.5  21.2                          295.370.  295.                                
 6070      6071 1           1.49      .9792  .86 1.18      -6071900.1080  900.                                
 6071      6341 1    1.867 9.99517.231                          251.317.  251.                                
 6171      6173 3           8.56      .9774 .7261.117      -6173150.210.20150.                                
 6195      6205 1   .3050611.4443.7798                          99999999  9999                                
 6200      5009 1          13.48       .956                      75. 90.   90.                                
 6201      5010 1          14.22       .956                      75. 90.   90.                                
 6202      5012 1           12.4       .956                      90.108.  108.                                
 6204      6171 1     .434 2.219 4.103                          179.251.  179.                                
 6204      6205 1           12.5         1.                     100.100.  100.                                
 6291      6341 1     1.18  6.08 11.14                          251.317.  251.                                
 6291      6738 1      .29 2.053  3.51                          250.315.  250.                                
 6300      5050 4      .29  3.99411.44                          21652165  2165                                
 6300      6294 1           2.85      1.025                     12001440  800.                                
 6300      6500 1      .04   .48 48.24                          21652165  2165                                
 6301      6300 1           3.55      1.011 .859 1.17       6301300.360.25300.                                
 6301      6311 1       .8  3.93  7.36                          350.350.  350.                                
 6311      6313 4          12.91      .9983 .7261.117      -6313100.140.20100.                                
 6311      6501 1     .007  .065  .254                          817.956.  817.                                
 6313      6314 1     3.72  9.01  .157                          100.100.   83.                                
 6334      6336 1            22.       1.06                     100.120.  120.                                
 6334      6351 1     3.84 19.73 35.08                          251.316.  251.                                
 6341      6342 4          11.11        .97  .85  1.1      -6342 55. 66.20 55.                                
 6349      4350 1     .161 2.305677.65                          25553464  3464                                
 6358      6171 1      .86  8.46  28.9                          671.753.  671.                                
 6358      6349 1          2.702      1.021 .7921.195       6358330.390.  300.                                
 6358      6351 1 T         .001                                797.797.  9999                                
 6370      6336 1 T 1.39075.96076.7975                          120.120.   21.                                
 6500      6070 1     .127 1.995284.21                          18002156  2156                                
 6501      6500 1           2.85      1.017   .9  1.1       6501300.360.  300.                                
 6738      6739 1           13.9         1.                     100.120.  120.                                
 6739      6074 1    .871714.408 .3693                          99999999  9999                                
99999
DSHL
(De ) O  (Pa )Nc (Shde)(Shpa) ED EP
 5001     5100 1        -150.     L
 6060     6070 1        -150.     L
 6300     5050 4  -100. -150.  L  L
 6300     6500 1  -150.        L   
99999
DGER
(No ) O (Pmn ) (Pmx ) ( Fp) (FpR) (FPn) (Fa) (Fr) (Ag) ( Xq) (Sno) (Est)
  304       0.    65.    0.  100.                                     0.
 4039       0.    35.    0.  100.                                     0.
 4068       0.   43.7    0.  100.                                     0.
 5022       0.   760.    0.  100.                                     0.
 5051       0.   230.    0.  100.                                     0.
 5054       0.   230.    0.  100.                                     0.
 5061       0.  1000.    0.  100.                                     0.
 6074       0.   64.5    0.  100.                                     0.
 6195       0.   67.5    0.  100.                                     0.
 6294       0.   438.    0.  100.                                     0.
 6370       0.   71.3    0.  100.                                     0.
99999
DCER
(No ) O Gr Un (Kb ) (Incl) ( Qg)( Qn)( Qm) C E L
 3344   10  1  3344  1.052    0. -92.103.2 P L L
 6060   10  1  6060     1.    0.-100. 200.   L L
99999
DARE
(Ar    (Xchg)     (      Identificacao da area       ) (Xmin) (Xmax)
  1        0.     RS - 525 kV                                        
  2        0.     RS - 230 kV                                        
  3        0.     RS - DIT/DIST                                      
  4        0.     RS - DIT/DIST (Sul + Livramento 2)                 
  5        0.     RS - Consumidores RB                               
  6        0.     RS - Autoprodutores 230 kV                         
  7        0.     SC - 525 kV                                        
  8        0.     SC - 230 kV                                        
  9        0.     SC - DIT/DIST                                      
 10        0.     SC - Consumidores RB                               
 11        0.     BA - 500 kV (Oeste)                                
 12        0.     BA - 230 kV (Oeste)                                
 13        0.     BA - DIT/DIST (Oeste)                              
 14        0.     BA - Consumidores RB (Oeste)                       
 15        0.     BA/SE - 500 kV                                     
 16        0.     BA/SE - 230 kV                                     
 17        0.     BA/SE - DIT/DIST (Sul NE)                          
 18        0.     BA/SE - DIT/DIST (Centro NE)                       
 19        0.     BA/SE - Consumidores RB                            
 20        0.     BA/SE - Autoprodutores 230 kV                      
 21        0.     AL/PE - 500 kV                                     
 22        0.     AL/PE - 230 kV                                     
 23        0.     AL/PE - DIT/DIST (Leste NE)                        
 24        0.     AL/PE - Consumidores RB                            
 25        0.     PB/RN - 500 kV                                     
 26        0.     PB/RN - 230 kV                                     
 27        0.     PB/RN - DIT/DIST (Leste NE)                        
 28        0.     PB/RN - Consumidores RB                            
 29        0.     CE - 500 kV                                        
 30        0.     CE - 230 kV                                        
 31        0.     CE - DIT/DIST                                      
 32        0.     CE - Consumidores RB                               
 33        0.     PI - 500 kV                                        
 34        0.     PI - 230 kV                                        
 35        0.     PI - DIT/DIST                                      
101        0.     PR - 525 kV                                        
102        0.     PR - 230 kV                                        
103        0.     PR - DIT/DIST                                      
104        0.     PR - Consumidores RB                               
105        0.     PR - Autoprodutores 230 kV                         
117        0.     MS - 440 kV                                        
118        0.     MS - 230 kV                                        
119        0.     MS - DIT/DIST                                      
120        0.     MS - Autoprodutores 230 kV                         
121        0.     MS - Autoprodutores DIT/DIST                       
122        0.     AC - 230 kV                                        
123        0.     AC - DIT/DIST (Rio Branco I)                       
126        0.     RO - 500 kV                                        
127        0.     RO - 230 kV                                        
128        0.     RO - DIT/DIST (Abun�)                              
129        0.     RO - DIT/DIST (Nova Mutum Paran�)                  
130        0.     RO - DIT/DIST (Porto Velho)                        
131        0.     RO - DIT/DIST (Ariquemes)                          
132        0.     RO - DIT/DIST (Jaru)                               
133        0.     RO - DIT/DIST (Ji-Paran�)                          
134        0.     RO - DIT/DIST (Pimenta Bueno)                      
135        0.     RO - DIT/DIST (Vilhena)                            
136        0.     MT - 500 kV                                        
137        0.     MT - 230 kV                                        
138        0.     MT - DIT/DIST (Sinop)                              
139        0.     MT - DIT/DIST (Sorriso)                            
140        0.     MT - DIT/DIST (Lucas do Rio Verde)                 
141        0.     MT - DIT/DIST (Dardanelos)                         
142        0.     MT - DIT/DIST (Anel Cuiab�)                        
143        0.     MT - DIT/DIST (Barra do Peixe)                     
144        0.     MT - DIT/DIST (Parecis)                            
145        0.     MT - Consumidores RB                               
146        0.     MT - Autoprodutores DIT/DIST                       
147        0.     GO - 500 kV                                        
148        0.     GO - 345 kV                                        
149        0.     GO - 230 kV                                        
150        0.     GO - DIT/DIST (Corumb�)                            
151        0.     GO - DIT/DIST (Goi�nia)                            
152        0.     GO - DIT/DIST (Parana�ba)                          
153        0.     GO - DIT/DIST (Sudoeste)                           
154        0.     GO - DIT/DIST (Norte)                              
155        0.     GO - Consumidores RB                               
156        0.     GO - Autoprodutores 230 kV                         
157        0.     DF - 500 kV                                        
158        0.     DF - 345 kV                                        
159        0.     DF - 230 kV                                        
160        0.     DF - DIT/DIST (Bras�lia)                           
161        0.     TO - 500 kV (Centro-Oeste)                         
162        0.     TO - 230 kV (Centro-Oeste)                         
163        0.     AM - 500 kV (Interliga��o PA)                      
164        0.     AM - 230 kV                                        
165        0.     AM - DIT/DIST (Mau� III)                           
166        0.     AM - DIT/DIST (Manaus)                             
167        0.     AM - DIT/DIST (J. Teixeira)                        
168        0.     AM - DIT/DIST (Radiais)                            
169        0.     AP - 230 kV                                        
170        0.     AP - DIT/DIST                                      
171        0.     PA - 500 kV                                        
172        0.     PA - 230 kV (Tramo Oeste)                          
173        0.     PA - 230 kV (Norte)                                
174        0.     PA - 230 kV (Sul)                                  
175        0.     PA - DIT/DIST (Tramo Oeste)                        
176        0.     PA - DIT/DIST (Norte)                              
177        0.     PA - DIT/DIST (Sul)                                
178        0.     PA - Consumidores RB                               
179        0.     MA - 500 kV                                        
180        0.     MA - 230 kV (Centro/Norte)                         
181        0.     MA - 230 kV (Imperatriz)                           
182        0.     MA - DIT/DIST (Centro/Norte)                       
183        0.     MA - DIT/DIST (Imperatriz)                         
184        0.     MA - Consumidores RB                               
185        0.     TO - 500 kV (Norte)                                
186        0.     TO - 230 kV (Norte)                                
187        0.     TO - DIT/DIST (Norte)                              
188        0.     MG - 500 kV                                        
189        0.     MG - 345 kV                                        
190        0.     MG - 230 kV                                        
191        0.     MG - DIT/DIST (Metropolitana)                      
192        0.     MG - DIT/DIST (Mantiqueira)                        
193        0.     MG - DIT/DIST (Norte)                              
194        0.     MG - DIT/DIST (Leste)                              
195        0.     MG - DIT/DIST (Tri�ngulo)                          
196        0.     MG - DIT/DIST (Sul)                                
197        0.     MG - DIT/DIST (Oeste)                              
198        0.     MG - DIT/DIST (Padre Fialho)                       
199        0.     MG - Consumidores RB                               
200        0.     MG - Autoprodutores DIT/DIST                       
201        0.     SP - 765 kV (SP+PR)                                
202        0.     SP - 500 kV                                        
203        0.     SP - 440 kV                                        
204        0.     SP - 345 kV                                        
205        0.     SP - 230 kV                                        
206        0.     SP - DIT/DIST (Litoral)                            
207        0.     SP - DIT/DIST (ATB/MOG/CAMP)                       
208        0.     SP - DIT/DIST (Araras)                             
209        0.     SP - DIT/DIST (Jupi�)                              
210        0.     SP - DIT/DIST (P.Prudente)                         
211        0.     SP - DIT/DIST (CERQ/Oeste/Salto)                   
212        0.     SP - DIT/DIST (Regi�o Metropolitana)               
213        0.     SP - DIT/DIST (Vale do Para�ba)                    
214        0.     SP - DIT/DIST (C. Paulista)                        
215        0.     SP - Autoprodutores DIT/DIST                       
216        0.     SP - Consumidores RB                               
221        0.     RJ - 500 kV                                        
222        0.     RJ - 345 kV                                        
223        0.     RJ - 230 kV                                        
224        0.     RJ - DIT/DIST (Metropolitana)                      
225        0.     RJ - DIT/DIST (Sul Fluminense)                     
226        0.     RJ - DIT/DIST (Baixada Fluminense)                 
227        0.     RJ - DIT/DIST (Serrana)                            
228        0.     RJ - DIT/DIST (Lagos)                              
229        0.     RJ - DIT/DIST (Norte Fluminense)                   
230        0.     RJ - Consumidores RB                               
231        0.     RJ - Autoprodutores 500 kV                         
232        0.     RJ - Autoprodutores DIT/DIST                       
233        0.     ES - 500 kV                                        
234        0.     ES - 345 kV                                        
235        0.     ES - 230 kV                                        
236        0.     ES - DIT/DIST (Grande Vit�ria)                     
237        0.     ES - DIT/DIST (Sul)                                
238        0.     ES - DIT/DIST (Norte)                              
239        0.     ES - Autoprodutores DIT/DIST                       
241        0.     PY - Sistema 50 Hz                                 
244        0.     TO - DIT/DIST (Centro-Oeste)                       
99999
DUSI                                                                          
(No) O (No) (Nome      )  ## DD (Pmin)(Pmax)(Qmin)(Qmax)    (Dumm)(Dumm)(No)#t
(xxx  XXXXX xxxxxxxxxxxx  xx                                            xxxxXx
( *** USINAS HIDRAULICAS *** )
   4   5030 APOLONIO SAL   2                                             1731H
   5   5032 APOLONIO SAL   2                                             1731H
 113   5051 LUIZ GONZAGA   3                                             1721H
 114   5054 LUIZ GONZAGA   3                                             1721H
 153   4039 QUEIMADO       3                                             1621H
 154   4068 RETIRO BAIXO   1                                             1551H
 155   4068 RETIRO BAIXO   1                                             1552H
 195   6294 SOBRADINHO     6                                             1691H
 201    304 TRES MARIAS    6                                             1561H
 214   5005 USINA PA-I     2                                             1741H
 215   5006 USINA PA-I     1                                             1741H
 216   5009 USINA PA-II    1                                             1742H
 217   5010 USINA PA-II    1                                             1742H
 218   5011 USINA PA-II    1                                             1743H
 219   5012 USINA PA-II    1                                             1744H
 220   5013 USINA PA-II    1                                             1744H
 221   5014 USINA PA-II    1                                             1744H
 222   5015 USINA PA-III   2                                             1745H
 223   5016 USINA PA-III   2                                             1745H
 224   5022 USINA PA-IV    6                                             1751H
 227   5061 XINGO          6                                             1781H
( *** USINAS TERMELETRICAS *** )
 261   5220 CAMPINA GRAN   1                                              52 T
 262   5220 CAMPINA GRAN   2                                              52 T
 263   5220 CAMPINA GRAN   3                                              52 T
 264   5220 CAMPINA GRAN   4                                              52 T
 298   3017 GOIANIA 2      1                                             155 T
 299   3017 GOIANIA 2      2                                             155 T
 305   4100 J.DEFORA       1                                              54 T
 306   4180 J.DEFORA       2                                              54 T
 377   3740 PALMEIRAS      1                                             182 T
 378   3740 PALMEIRAS      2                                             182 T
 388   6314 PETROLINA(L)   1                                             144 T
 389   6314 PETROLINA(L)   2                                             144 T
 390   6314 PETROLINA(L)   3                                             144 T
 391   6314 PETROLINA(L)   4                                             144 T
 392   6314 PETROLINA(L)   5                                             144 T
 393   6314 PETROLINA(L)   6                                             144 T
 394   6314 PETROLINA(L)   7                                             144 T
 395   6314 PETROLINA(L)   8                                             144 T
 484   3977 TERMOMACE      1                                              90 T
 485   3977 TERMOMACE     10                                              90 T
 486   3977 TERMOMACE     11                                              90 T
 487   3977 TERMOMACE     12                                              90 T
 488   3977 TERMOMACE     13                                              90 T
 489   3977 TERMOMACE     14                                              90 T
 490   3977 TERMOMACE     15                                              90 T
 491   3977 TERMOMACE     16                                              90 T
 492   3977 TERMOMACE     17                                              90 T
 493   3977 TERMOMACE     18                                              90 T
 494   3977 TERMOMACE     19                                              90 T
 495   3977 TERMOMACE      2                                              90 T
 496   3977 TERMOMACE     20                                              90 T
 497   3977 TERMOMACE      3                                              90 T
 498   3977 TERMOMACE      4                                              90 T
 499   3977 TERMOMACE      5                                              90 T
 500   3977 TERMOMACE      6                                              90 T
 501   3977 TERMOMACE      7                                              90 T
 502   3977 TERMOMACE      8                                              90 T
 503   3977 TERMOMACE      9                                              90 T
 533   8910 UTE VIANA      3                                              49 T
 534   8910 UTE VIANA      4                                              49 T
 535   8911 UTE VIANA      1                                              49 T
 536   8911 UTE VIANA      2                                              49 T
 547   2979 XAVANTES       1                                             108 T
 548   2979 XAVANTES       2                                             108 T
99999
FIM